<?xml version="1.0" encoding="UTF-8"?>
<routes>
    <!-- Vehicle types with GUI shapes -->
    <vType id="fastCar" accel="4.0" decel="6.0" sigma="0.5" length="5" maxSpeed="20.0"
           color="0,1,0" guiShape="passenger/sedan"/>

    <vType id="slowCar" accel="2.0" decel="4.0" sigma="0.5" length="5" maxSpeed="10.0"
           color="0,0,1" guiShape="passenger/hatchback"/>

    <vType id="ambulance" accel="3.0" decel="6.0" sigma="0.5" length="10" maxSpeed="13.9"
           color="1,1,1" guiShape="emergency"/>

    <vType id="v2vCar" accel="3.5" decel="5.5" sigma="0.5" length="5" maxSpeed="15.0"
           color="0,1,1" guiShape="passenger/wagon"/>

    <!-- Regular car routes -->
    <route id="routeBCF" edges="B_C C_F"/>
    <route id="routeCF" edges="C_F"/>
    <route id="routeDEHI" edges="D_E E_H H_I"/>
    <route id="routeAEF" edges="A_B B_E E_F"/>
    <route id="routeABCF" edges="A_B B_C C_F"/>
    <route id="routeADG" edges="A_D D_G G_H"/>
    <route id="routeBEHI" edges="B_E E_H H_I"/>
    <route id="routeAF" edges="A_B B_E E_F F_I"/>
    <route id="routeDG" edges="D_G G_H"/>
    <route id="routeFI" edges="F_I"/>
    <route id="routeBCEF" edges="B_C C_F F_I"/>
    <route id="routeEF" edges="E_F"/>
    <route id="routeGHI" edges="G_H H_I"/>
    <route id="routeHI" edges="H_I"/>
    <route id="routeAD" edges="A_D"/>
    <route id="routeBEF" edges="B_E E_F"/>
    <route id="routeCFI" edges="C_F F_I"/>
    <route id="routeEHFI" edges="E_H H_I F_I"/>

    <!-- Additional routes for better network coverage -->
    <route id="routeFullHorizontal" edges="A_B B_C"/>
    <route id="routeFullVertical" edges="A_D D_G"/>
    <route id="routeCornerToCorner" edges="A_B B_E E_H H_I"/>
    <route id="routeMiddleCross" edges="D_E E_F"/>

    <!-- Routes for collision testing -->
    <route id="routeCollisionTest1" edges="B_E E_H"/>
    <route id="routeCollisionTest2" edges="E_F F_I"/>
    <route id="routeShortLoop1" edges="A_B"/>
    <route id="routeShortLoop2" edges="B_E"/>
    <route id="routeConverging1" edges="D_E E_F"/>
    <route id="routeConverging2" edges="B_E E_F"/>

    <!-- Parking-only routes for ambulances -->
    <route id="routeAmbulance0" edges="A_B_parking"/>
    <route id="routeAmbulance1" edges="D_G_parking"/>
    <route id="routeAmbulance2" edges="H_I_parking"/>
</routes>
